/batch
/config,noeldb,1     ! force off writing results to database
*get,_wallstrt,active,,time,wall
! ANSYS input file written by Workbench version 15.0  Release
! File used for geometry attach: G:\RV3-2body_design\4strength_check\ansysfiles\J1_J2_files\dp0\Geom\DM\Geom.agdb
/title,J1_J2--Static Structural (B5)
*DIM,_wb_ProjectScratch_dir,string,248
_wb_ProjectScratch_dir(1) = 'G:\RV3-2body_design\4strength_check\ansysfiles\_ProjectScratch\ScrACAD\'
*DIM,_wb_SolverFiles_dir,string,248
_wb_SolverFiles_dir(1) = 'G:\RV3-2body_design\4strength_check\ansysfiles\J1_J2_files\dp0\SYS\MECH\'
*DIM,_wb_userfiles_dir,string,248
_wb_userfiles_dir(1) = 'G:\RV3-2body_design\4strength_check\ansysfiles\J1_J2_files\user_files\'
/com,--- Data in consistent MKS units.
/units,MKS
/nopr
/wb,file,start              !  signify a WB generated input file
/prep7
! Turn off shape checking because checks already performed inside WB mesher.
! See help system for more information.
SHPP,OFF,,NOWARN
/nolist
etcon,set             ! allow ANSYS to choose best KEYOP's for 180x elements
/com,*********** Nodes for the whole assembly ***********
nblock,3
(1i9,3e20.9e3)
        1   -1.005360993E-001    1.100741390E-001    2.332000000E-002
        2   -9.005036762E-002    1.100741390E-001    2.332000000E-002
        3   -9.704085541E-002    1.100741390E-001    2.332000000E-002
        4   -9.354561152E-002    1.100741390E-001    2.332000000E-002
        5   -9.005036762E-002    1.100741390E-001    1.732000000E-002
        6   -9.014161620E-002    1.074762147E-001    2.182022273E-002
        7   -9.014161522E-002    1.074762432E-001    1.881979037E-002
        8   -1.005360993E-001    1.100741390E-001    1.732000000E-002
        9   -9.704085541E-002    1.100741390E-001    1.732000000E-002
       10   -9.354561152E-002    1.100741390E-001    1.732000000E-002
       11   -1.006573170E-001    1.074727031E-001    2.181411699E-002
       12   -1.006573157E-001    1.074727312E-001    1.882589664E-002
       13   -1.891602973E-001    8.448012713E-002    4.000000000E-003
       14   -1.916602973E-001    8.448012713E-002    4.000000000E-003
       15   -1.897852973E-001    8.339759537E-002    4.000000000E-003
       16   -1.910352973E-001    8.339759537E-002    4.000000000E-003
       17   -1.891602973E-001    8.448012713E-002   -0.000000000E+000
       18   -1.916602973E-001    8.448012713E-002   -0.000000000E+000
       19   -1.897852973E-001    8.339759537E-002   -1.402220585E-018
       20   -1.910352973E-001    8.339759537E-002   -1.402220585E-018
! ... 15009 like lines cut
/wb,elem,start            !  set before creation of elements
/com,*********** Elements for Body 1 "J2 Turret Housing" ***********
et,1,187
eblock,19,solid,,8480
(19i9)
        1        1        1        1        0        0        0        0       10        0        1     1442     1482     1805     1458    10915    11101    10917    10912
    11016    11018
        1        1        1        1        0        0        0        0       10        0        2     1653     1861     1675     1677    12087    12221    12083    12084
    12231    12219
        1        1        1        1        0        0        0        0       10        0        3      594     1636     1109     1778     6162     9090     6160     6164
    12004     9091
        1        1        1        1        0        0        0        0       10        0        4     1161     1162     1759     2334     9368     9376     9371     9373
     9377    12676
        1        1        1        1        0        0        0        0       10        0        5      598     1775     1111     1137     6186     9107     6182     6183
     9261     9104
        1        1        1        1        0        0        0        0       10        0        6     1685     1800     1731     1796    12266    12571    12264    12265
    12923    12570
        1        1        1        1        0        0        0        0       10        0        7     1404     2198     1432     1798    10706    10852    10704    10705
    12945    10850
        1        1        1        1        0        0        0        0       10        0        8      136     1478     1803     1788     3416    11093     3419     3418
    11091    12849
        1        1        1        1        0        0        0        0       10        0        9       54     1767     2334     1161     2799    12703     2800     2797
     9372     9373
        1        1        1        1        0        0        0        0       10        0       10       54     2334     1162     1161     2800     9377     2798     2797
     9373     9368
! ... 16941 like lines cut
!Material Id = {52B91EB8-BB7E-4F06-AE6C-31A67BD61E52}
/wb,elem,end               !  done creating elements
/com,*********** Send User Defined Coordinate System(s) ***********
csys,0
toffst,273.15,  ! Temperature offset from absolute zero
/com,*********** Set Reference Temperature ***********
tref,22.
/wb,mat,start              !  starting to send materials
/com,*********** Send Materials ***********
MP,DENS,1,2770,	! kg m^-3
MP,ALPX,1,2.3e-05,	! C^-1
MP,C,1,875,	! J kg^-1 C^-1
MPTEMP,,,,,,,,
MPTEMP,1,-100
MPTEMP,2,0
MPTEMP,3,100
MPTEMP,4,200
MPDATA,KXX,1, ,114,144,165,175,	! W m^-1 C^-1
MPTEMP,,,,,,,,
MPTEMP,,,,,,,,
MPTEMP,1,0
MPTEMP,2,20
MPTEMP,3,100
MPDATA,RSVX,1, ,2.43e-08,2.67e-08,3.63e-08,	! kg m^3 A^-2 s^-3
MPTEMP,,,,,,,,
MP,EX,1,71000000000,	! Pa
MP,NUXY,1,0.33,
MP,MURX,1,1,

/wb,mat,end                !  done sending materials
!************************* Model Summary ********************
!J2 Turret Housing,	Aluminum Alloy,	matid,	1
!************************* End Model Summary ********************
! get the diagonal of the bounding box. Needed later for other things
*get,_xmin,node,,mnloc,x
*get,_ymin,node,,mnloc,y
*get,_zmin,node,,mnloc,z
*get,_xmax,node,,mxloc,x
*get,_ymax,node,,mxloc,y
*get,_zmax,node,,mxloc,z
_ASMDIAG=(_xmax-_xmin)*(_xmax-_xmin)+(_ymax-_ymin)*(_ymax-_ymin)+(_zmax-_zmin)*(_zmax-_zmin)
_ASMDIAG=SQRT(_ASMDIAG)
/wb,contact,start          !  starting to send contact
/wb,contact,end            !  done creating contacts
/golist
/wb,load,start             !  starting to send loads
/com,*********** Fixed Supports ***********
CMBLOCK,_FIXEDSU,NODE,      579
(8i10)
        29        30        31        32        59        60        61        62
        93        96        97        98       105       108       109       110
       117       120       121       122       129       132       133       134
       141       144       145       146       153       156       157       158
       368       375       376       377       378       379       380       381
       382       383       384       385       414       436       437       438
       439       578       579       580       581       582       583       584
       585       586       587       588       589       590       635       638
       639       644       645       646       647       648       649       650
       651       652       653       654       655       656       657       658
       659       660       661       662       663       664       665       666
       667       668       669       670       671       672       673       674
       675       676       677       678       679       680       681       682
       683       684       685       686       687       688       689       690
       691       692       693       694      1435      1436      1437      1438
      1439      1440      1441      1442      1443      1444      1445      1446
      1447      1448      1449      1450      1451      1452      1453      1454
      1455      1456      1457      1458      1459      1460      1461      1462
      1463      1464      1465      1466      1467      1468      1469      1470
      1471      1472      1473      1474      1475      1476      1477      1478
! ... 53 like lines cut
cmsel,s,_FIXEDSU
d,all,all
nsel,all
nsel,all
/com,*********** Define Force Using Surface Effect Elements ***********
local,12,0,0.,0.,0.,-0.,0.,0.
csys,0
et,2,154
eblock,10,,,194
(15i9)
     8481        2        2        2       12      188      187     1165     1165     3865     3867     1165     3872
     8482        2        2        2       12      187      161      763      763     3604     3606      763     3866
     8483        2        2        2       12      189      188     1190     1190     3871     3873     1190     3881
     8484        2        2        2       12      190      189     1166     1166     3879     3880     1166     3887
     8485        2        2        2       12      186      190      634      634     3858     3886      634     3862
     8486        2        2        2       12      162      215      741      741     3609     4053      741     3612
     8487        2        2        2       12      215      216     1167     1167     4052     4059     1167     4054
     8488        2        2        2       12      216     1168     1167     1167     4060     9404     1167     4059
     8489        2        2        2       12      217      218     1168     1168     4065     4073     1168     4066
     8490        2        2        2       12      218      191      612      612     3895     3896      612     4072
     8491        2        2        2       12      612      613     1168     1168     6263     6268     1168     6264
     8492        2        2        2       12      613      614     1191     1191     6267     6275     1191     6269
     8493        2        2        2       12      614      615     1169     1169     6273     6280     1169     6274
     8494        2        2        2       12      615      616     1192     1192     6279     6288     1192     6281
     8495        2        2        2       12      616      617     1170     1170     6286     6293     1170     6287
     8496        2        2        2       12      617      618     1193     1193     6292     6300     1193     6294
     8497        2        2        2       12      618      619     1171     1171     6298     6305     1171     6299
     8498        2        2        2       12      619      620     1194     1194     6304     6311     1194     6306
     8499        2        2        2       12      620      621     1172     1172     6309     6314     1172     6310
     8500        2        2        2       12      621      622     1195     1195     6313     6320     1195     6315
! ... 175 like lines cut
esel,s,type,,2
keyop,2,2,1                ! Apply load in local coordinate system
keyop,2,7,1                ! Use original area so load is constant in large deformation
keyop,2,11,2               ! Use real and not project area
esel,all

*DIM,_loadvari26x,TABLE,2,1,1,TIME,
! Time values
_loadvari26x(1,0,1) = 0.
_loadvari26x(2,0,1) = 1.
! Load values
_loadvari26x(1,1,1) = -8869.26255150551
_loadvari26x(2,1,1) = -8869.26255150551


*DIM,_loadvari26y,TABLE,2,1,1,TIME,
! Time values
_loadvari26y(1,0,1) = 0.
_loadvari26y(2,0,1) = 1.
! Load values
_loadvari26y(1,1,1) = 0.
_loadvari26y(2,1,1) = 0.


*DIM,_loadvari26z,TABLE,2,1,1,TIME,
! Time values
_loadvari26z(1,0,1) = 0.
_loadvari26z(2,0,1) = 1.
! Load values
_loadvari26z(1,1,1) = 0.
_loadvari26z(2,1,1) = 0.

/com,*********** Define Force Using Surface Effect Elements ***********
local,13,0,0.,0.,0.,-0.,0.,0.
csys,0
et,3,154
eblock,10,,,192
(15i9)
     8675        3        3        3       13      169      168     1373     1373     3676     3680     1373     3690
     8676        3        3        3       13      167      166     1372     1372     3652     3657     1372     3669
     8677        3        3        3       13      178      177     1395     1395     3765     3769     1395     3778
     8678        3        3        3       13      177      176     1395     1395     3755     3759     1395     3769
     8679        3        3        3       13      176      175     1415     1415     3744     3749     1415     3760
     8680        3        3        3       13      175      174     1376     1376     3737     3740     1376     3748
     8681        3        3        3       13      168      167     1392     1392     3663     3670     1392     3681
     8682        3        3        3       13      166      165     1371     1371     3642     3646     1371     3656
     8683        3        3        3       13      218      217     1370     1370     4065     4067     1370     4074
     8684        3        3        3       13      165      164     1371     1371     3630     3635     1371     3646
     8685        3        3        3       13      164      163     1367     1367     3617     3625     1367     3634
     8686        3        3        3       13      191      218      214      214     3895     4048      214     3894
     8687        3        3        3       13      217      216     1390     1390     4058     4062     1390     4068
     8688        3        3        3       13      216      215     1369     1369     4052     4055     1369     4061
     8689        3        3        3       13      173      172     1375     1375     3717     3721     1375     3731
     8690        3        3        3       13      172      171     1394     1394     3705     3710     1394     3722
     8691        3        3        3       13      171      170     1374     1374     3696     3699     1374     3709
     8692        3        3        3       13      215      162      185      185     3609     3608      185     3846
     8693        3        3        3       13      189      190     1368     1368     3879     3888     1368     3882
     8694        3        3        3       13      187      188     1367     1367     3865     3874     1367     3868
! ... 173 like lines cut
esel,s,type,,3
keyop,3,2,1                ! Apply load in local coordinate system
keyop,3,7,1                ! Use original area so load is constant in large deformation
keyop,3,11,2               ! Use real and not project area
esel,all

*DIM,_loadvari28x,TABLE,2,1,1,TIME,
! Time values
_loadvari28x(1,0,1) = 0.
_loadvari28x(2,0,1) = 1.
! Load values
_loadvari28x(1,1,1) = -8869.26350423411
_loadvari28x(2,1,1) = -8869.26350423411


*DIM,_loadvari28y,TABLE,2,1,1,TIME,
! Time values
_loadvari28y(1,0,1) = 0.
_loadvari28y(2,0,1) = 1.
! Load values
_loadvari28y(1,1,1) = 0.
_loadvari28y(2,1,1) = 0.


*DIM,_loadvari28z,TABLE,2,1,1,TIME,
! Time values
_loadvari28z(1,0,1) = 0.
_loadvari28z(2,0,1) = 1.
! Load values
_loadvari28z(1,1,1) = 0.
_loadvari28z(2,1,1) = 0.

/com,*********** Define Force Using Surface Effect Elements ***********
local,14,0,0.,0.,0.,-0.,0.,0.
csys,0
et,4,154
eblock,10,,,178
(15i9)
     8867        4        4        4       14      711     1266     1244     1244     6797     9824     1244     6796
     8868        4        4        4       14      246      245     1234     1234     4335     4337     1234     4343
     8869        4        4        4       14      708     1265     1243     1243     6783     9821     1243     6782
     8870        4        4        4       14      710      711     1244     1244     6791     6796     1244     6792
     8871        4        4        4       14      245      219      740      740     4079     4082      740     4336
     8872        4        4        4       14      707      708     1243     1243     6776     6782     1243     6777
     8873        4        4        4       14      706     1264     1242     1242     6773     9817     1242     6772
     8874        4        4        4       14      704     1263     1241     1241     6764     9812     1241     6763
     8875        4        4        4       14      702     1262     1240     1240     6754     9806     1240     6753
     8876        4        4        4       14      701      702     1240     1240     6746     6753     1240     6747
     8877        4        4        4       14      703      704     1241     1241     6757     6763     1241     6758
     8878        4        4        4       14      700     1261     1239     1239     6744     9799     1239     6743
     8879        4        4        4       14      699      700     1239     1239     6735     6743     1239     6737
     8880        4        4        4       14      698      699     1238     1238     6732     6736     1238     6733
     8881        4        4        4       14      697      698     1238     1238     6727     6733     1238     6728
     8882        4        4        4       14      696      697     1260     1260     6722     6729     1260     6724
     8883        4        4        4       14      695      696     1237     1237     6717     6723     1237     6719
     8884        4        4        4       14      276      249      695      695     4364     4367      695     4543
     8885        4        4        4       14      275      276     1237     1237     4535     4544     1237     4536
     8886        4        4        4       14      274     1259     1236     1236     4530     9781     1236     4529
! ... 159 like lines cut
esel,s,type,,4
keyop,4,2,1                ! Apply load in local coordinate system
keyop,4,7,1                ! Use original area so load is constant in large deformation
keyop,4,11,2               ! Use real and not project area
esel,all

*DIM,_loadvari30x,TABLE,2,1,1,TIME,
! Time values
_loadvari30x(1,0,1) = 0.
_loadvari30x(2,0,1) = 1.
! Load values
_loadvari30x(1,1,1) = -9072.37604572107
_loadvari30x(2,1,1) = -9072.37604572107


*DIM,_loadvari30y,TABLE,2,1,1,TIME,
! Time values
_loadvari30y(1,0,1) = 0.
_loadvari30y(2,0,1) = 1.
! Load values
_loadvari30y(1,1,1) = 0.
_loadvari30y(2,1,1) = 0.


*DIM,_loadvari30z,TABLE,2,1,1,TIME,
! Time values
_loadvari30z(1,0,1) = 0.
_loadvari30z(2,0,1) = 1.
! Load values
_loadvari30z(1,1,1) = 0.
_loadvari30z(2,1,1) = 0.

/com,*********** Define Force Using Surface Effect Elements ***********
local,15,0,0.,0.,0.,-0.,0.,0.
csys,0
et,5,154
eblock,10,,,200
(15i9)
     9045        5        5        5       15      245      246     1295     1295     4335     4345     1295     4338
     9046        5        5        5       15      249      276      272      272     4364     4514      272     4363
     9047        5        5        5       15      240      239     1328     1328     4277     4282     1328     4292
     9048        5        5        5       15      225      224     1300     1300     4125     4130     1300     4140
     9049        5        5        5       15      238      237     1327     1327     4252     4258     1327     4270
     9050        5        5        5       15      237      236     1306     1306     4244     4248     1306     4257
     9051        5        5        5       15      219      245      221      221     4079     4096      221     4078
     9052        5        5        5       15      276      275     1298     1298     4535     4538     1298     4545
     9053        5        5        5       15      239      238     1307     1307     4265     4269     1307     4281
     9054        5        5        5       15      236      235     1326     1326     4232     4237     1326     4249
     9055        5        5        5       15      234      233     1304     1304     4211     4215     1304     4224
     9056        5        5        5       15      232      231     1346     1346     4193     4198     1346     4205
     9057        5        5        5       15      229      228     1302     1302     4165     4169     1302     4179
     9058        5        5        5       15      224      223     1299     1299     4117     4120     1299     4129
     9059        5        5        5       15      248      244      250      250     4328     4329      250     4357
     9060        5        5        5       15      275      274     1320     1320     4528     4532     1320     4539
     9061        5        5        5       15      235      234     1305     1305     4220     4225     1305     4236
     9062        5        5        5       15      233      232     1304     1304     4202     4204     1304     4215
     9063        5        5        5       15      231      230     1303     1303     4183     4188     1303     4197
     9064        5        5        5       15      228      227     1324     1324     4156     4161     1324     4170
! ... 181 like lines cut
esel,s,type,,5
keyop,5,2,1                ! Apply load in local coordinate system
keyop,5,7,1                ! Use original area so load is constant in large deformation
keyop,5,11,2               ! Use real and not project area
esel,all

*DIM,_loadvari32x,TABLE,2,1,1,TIME,
! Time values
_loadvari32x(1,0,1) = 0.
_loadvari32x(2,0,1) = 1.
! Load values
_loadvari32x(1,1,1) = -9072.37632115142
_loadvari32x(2,1,1) = -9072.37632115142


*DIM,_loadvari32y,TABLE,2,1,1,TIME,
! Time values
_loadvari32y(1,0,1) = 0.
_loadvari32y(2,0,1) = 1.
! Load values
_loadvari32y(1,1,1) = 0.
_loadvari32y(2,1,1) = 0.


*DIM,_loadvari32z,TABLE,2,1,1,TIME,
! Time values
_loadvari32z(1,0,1) = 0.
_loadvari32z(2,0,1) = 1.
! Load values
_loadvari32z(1,1,1) = 0.
_loadvari32z(2,1,1) = 0.

/gst,on,on
fini
*get,_numnode,node,0,count
*get,_numelem,elem,0,count
*get, _MAXELEMNUM, elem, 0, NUM, MAX
*get, _MAXNODENUM, node, 0, NUM, MAX
*get, _MAXELEMTYPE, etyp, 0, NUM, MAX
*get, _MAXREALCONST, real, 0, NUM, MAX
/go
/wb,load,end               !  done creating loads
/com,--- Number of total nodes = %_numnode%
/com,--- Number of contact elements = 764
/com,--- Number of spring elements = 0
/com,--- Number of bearing elements = 0
/com,--- Number of solid elements = 8480
/com,--- Number of total elements = %_numelem%
*get,_wallbsol,active,,time,wall
/com,****************************************************************************
/com,*************************    SOLUTION       ********************************
/com,****************************************************************************
/solu
antype,0                   ! static analysis
solc,on,on                 ! Turn on solution control with ability to use contact time prediction
eqsl,pcg,1e-8,,,,,,1
cntr,print,1               ! print out contact info and also make no initial contact an error
nldiag,cont,iter           ! print out contact info each equilibrium iteration
resc,,none                 ! Do not keep any restart files
/com,****************************************************
/com,******************* SOLVE FOR LS 1 ****************
esel,s,type,,2
nsle
sfe,all,1,pres,1,%_loadvari26x%
sfe,all,2,pres,1,%_loadvari26y%
sfe,all,3,pres,1,%_loadvari26z%
esel,s,type,,3
nsle
sfe,all,1,pres,1,%_loadvari28x%
sfe,all,2,pres,1,%_loadvari28y%
sfe,all,3,pres,1,%_loadvari28z%
esel,s,type,,4
nsle
sfe,all,1,pres,1,%_loadvari30x%
sfe,all,2,pres,1,%_loadvari30y%
sfe,all,3,pres,1,%_loadvari30z%
esel,s,type,,5
nsle
sfe,all,1,pres,1,%_loadvari32x%
sfe,all,2,pres,1,%_loadvari32y%
sfe,all,3,pres,1,%_loadvari32z%
nsel,all
esel,all
/nopr
/gopr
nsub,1,1,1
time,1.
outres,erase
outres,all,none
outres,nsol,all
outres,rsol,all
outres,strs,all
outres,epel,all
outres,eppl,all
stabilize,off                   ! Stabilization turned OFF by user
! *********** WB SOLVE COMMAND ***********
! check interactive state
*get,ANSINTER_,active,,int
*if,ANSINTER_,ne,0,then
/eof
*endif
solve
/com *************** Write FE CONNECTORS ********* 
CEWRITE,file,ce,,INTE
/com,****************************************************
/com,*************** FINISHED SOLVE FOR LS 1 *************
*set,_DS_PROGRESS          ! turn off progress updates to avoid virus scanning bug
*get,_wallasol,active,,time,wall
*get,_PCGITER,active,,solu,cgiter
/post1
xmlo,ENCODING,ISO-8859-1
xmlo,parm
/xml,parm,xml
fini
/gopr
*get,_walldone,active,,time,wall
_preptime=(_wallbsol-_wallstrt)*3600
_solvtime=(_wallasol-_wallbsol)*3600
_posttime=(_walldone-_wallasol)*3600
_totaltim=(_walldone-_wallstrt)*3600
/wb,file,end               ! done with WB generated input
